# Scale-out knob for peak-bandwidth experiments:
# Simulate a larger SM86-like GPU with 80 SMs (V100-class scale).
-gpgpu_n_clusters 80
-gpgpu_n_cores_per_cluster 1
